[TITLE]
;;Project Title/Notes
Location: Lucy Ave. / Sardis St. drainage area (Memphis TN)
Map coordinate system: NAD 1983 StatePlane Tennessee FIPS 4100 Feet
Vertical datum: ft-NAVD88
Time zone: CST/CDT (UTC -6/-5)
===
Scenario: Future land use conditions + Current stormwater management system

[OPTIONS]
;;Option             Value
FLOW_UNITS           CFS
INFILTRATION         MODIFIED_GREEN_AMPT
FLOW_ROUTING         DYNWAVE
LINK_OFFSETS         DEPTH
MIN_SLOPE            0
ALLOW_PONDING        NO
SKIP_STEADY_STATE    NO

START_DATE           01/01/2025
START_TIME           00:00:00
REPORT_START_DATE    01/01/2025
REPORT_START_TIME    00:00:00
END_DATE             01/02/2025
END_TIME             12:00:00
SWEEP_START          01/01
SWEEP_END            12/31
DRY_DAYS             0
REPORT_STEP          00:01:00
WET_STEP             00:01:00
DRY_STEP             01:00:00
ROUTING_STEP         0:00:01 
RULE_STEP            00:00:00

INERTIAL_DAMPING     NONE
NORMAL_FLOW_LIMITED  BOTH
FORCE_MAIN_EQUATION  H-W
SURCHARGE_METHOD     Slot
VARIABLE_STEP        0.00
LENGTHENING_STEP     0
MIN_SURFAREA         12.6
MAX_TRIALS           20
HEAD_TOLERANCE       0.0001
SYS_FLOW_TOL         5
LAT_FLOW_TOL         5
MINIMUM_STEP         0.5
THREADS              12

[EVAPORATION]
;;Data Source    Parameters
;;-------------- ----------------
CONSTANT         0.0
DRY_ONLY         NO

[RAINGAGES]
;;Name           Format    Interval SCF      Source    
;;-------------- --------- ------ ------ ----------
KMEM_HPCP        VOLUME    1:00     1.0      FILE       "KMEM_HourlyRainfall_1948-2023.dat" 405954     IN   
Rain_1in1hr      VOLUME    1:00     1.0      TIMESERIES Rain_1in1hr     
SCS2_001y24hr    INTENSITY 0:06     1.0      TIMESERIES SCS2_001y24hr   
SCS2_002y24hr    INTENSITY 0:06     1.0      TIMESERIES SCS2_002y24hr   
SCS2_005y24hr    INTENSITY 0:06     1.0      TIMESERIES SCS2_005y24hr   
SCS2_010y24hr    INTENSITY 0:06     1.0      TIMESERIES SCS2_010y24hr   
SCS2_025y24hr    INTENSITY 0:06     1.0      TIMESERIES SCS2_025y24hr   
SCS2_050y24hr    INTENSITY 0:06     1.0      TIMESERIES SCS2_050y24hr   
SCS2_100y24h     INTENSITY 0:06     1.0      TIMESERIES SCS2_100y24h    

[SUBCATCHMENTS]
;;Name           Rain Gage        Outlet           Area     %Imperv  Width    %Slope   CurbLen  SnowPack        
;;-------------- ---------------- ---------------- -------- -------- -------- -------- -------- ----------------
S01              SCS2_010y24hr    CBMH01           1.0114   45.6     176      3.5      0                        
S02              SCS2_010y24hr    CBMH02           0.7472   50.7     135      3.4      0                        
S03              SCS2_010y24hr    CBMH03           1.3011   55       209      3.7      0                        
S04              SCS2_010y24hr    CBMH04           1.1422   55       177      3.1      0                        
S05              SCS2_010y24hr    CBMH05           1.8313   37.0     249      3        0                        
S06              SCS2_010y24hr    CBMH06           1.2385   43.2     179      2.7      0                        
S07              SCS2_010y24hr    CBMH07           1.0165   40.9     177      4.5      0                        
S08              SCS2_010y24hr    CBMH08           1.3674   44.4     175      3.8      0                        

[SUBAREAS]
;;Subcatchment   N-Imperv   N-Perv     S-Imperv   S-Perv     PctZero    RouteTo    PctRouted 
;;-------------- ---------- ---------- ---------- ---------- ---------- ---------- ----------
S01              0.06       0.2        0.1        0.14       15         OUTLET    
S02              0.06       0.2        0.1        0.14       15         OUTLET    
S03              0.06       0.2        0.1        0.14       15         OUTLET    
S04              0.06       0.2        0.1        0.14       15         OUTLET    
S05              0.06       0.2        0.1        0.14       15         OUTLET    
S06              0.06       0.2        0.1        0.14       15         OUTLET    
S07              0.06       0.2        0.1        0.14       15         OUTLET    
S08              0.06       0.2        0.1        0.14       15         OUTLET    

[INFILTRATION]
;;Subcatchment   Param1     Param2     Param3     Param4     Param5    
;;-------------- ---------- ---------- ---------- ---------- ----------
S01              3.5        0.3        0.23       0          0         
S02              3.5        0.3        0.23       0          0         
S03              3.5        0.3        0.23       0          0         
S04              3.5        0.3        0.23       0          0         
S05              3.5        0.3        0.23       0          0         
S06              3.5        0.3        0.23       0          0         
S07              3.5        0.3        0.23       0          0         
S08              3.5        0.3        0.23       0          0         

[JUNCTIONS]
;;Name           Elevation  MaxDepth   InitDepth  SurDepth   Aponded   
;;-------------- ---------- ---------- ---------- ---------- ----------
CBMH01           294.05     3.75       0          0          0         
CBMH02           295.74     3.16       0          0          0         
CBMH03           293.83     3.67       0          0          0         
CBMH04           293.44     3.96       0          0          0         
CBMH05           292.45     3.75       0          0          0         
CBMH06           288.12     4.98       0          0          0         
CBMH07           288.6      4.5        0          0          0         
CBMH08           287.91     4.99       0          0          0         
MH05             291.45     4.25       0          0          0         

[OUTFALLS]
;;Name           Elevation  Type       Stage Data       Gated    Route To        
;;-------------- ---------- ---------- ---------------- -------- ----------------
OF1              287.6      NORMAL                      NO                       

[CONDUITS]
;;Name           From Node        To Node          Length     Roughness  InOffset   OutOffset  InitFlow   MaxFlow   
;;-------------- ---------------- ---------------- ---------- ---------- ---------- ---------- ---------- ----------
C010             CBMH01           CBMH04           50         0.015      0          0.13       0          0         
C020             CBMH02           CBMH03           235        0.015      0          0.63       0          0         
C030             CBMH03           CBMH04           95         0.015      0          0.34       0          0         
C040             CBMH04           MH05             142        0.015      0          0.18       0          0         
C050             MH05             CBMH06           144        0.015      0          0.63       0          0         
C055             CBMH05           MH05             117        0.015      0          0.23       0          0         
C060             CBMH06           CBMH08           57         0.015      0          0.08       0          0         
C070             CBMH07           CBMH08           31         0.015      0          0.61       0          0         
C080             CBMH08           OF1              220        0.015      0          0          0          0         

[XSECTIONS]
;;Link           Shape        Geom1            Geom2      Geom3      Geom4      Barrels    Culvert   
;;-------------- ------------ ---------------- ---------- ---------- ---------- ---------- ----------
C010             CIRCULAR     1.5              0          0          0          1                    
C020             CIRCULAR     1.5              0          0          0          1                    
C030             CIRCULAR     1.75             0          0          0          1                    
C040             CIRCULAR     2                0          0          0          1                    
C050             CIRCULAR     2.25             0          0          0          1                    
C055             CIRCULAR     1.75             0          0          0          1                    
C060             CIRCULAR     2.75             0          0          0          1                    
C070             CIRCULAR     1.5              0          0          0          1                    
C080             CIRCULAR     3                0          0          0          1                    

[LOSSES]
;;Link           Kentry     Kexit      Kavg       Flap Gate  Seepage   
;;-------------- ---------- ---------- ---------- ---------- ----------
C010             0.3        0.5        0          NO         0         
C020             0.3        0.25       0          NO         0         
C030             0.3        0.5        0          NO         0         
C040             0.3        0.1        0          NO         0         
C050             0.3        0.25       0          NO         0         
C055             0.3        0.5        0          NO         0         
C060             0.3        0.25       0          NO         0         
C070             0.3        0.75       0          NO         0         
C080             0.3        0.5        0          NO         0         

[TIMESERIES]
;;Name           Date       Time       Value     
;;-------------- ---------- ---------- ----------
Rain_1in1hr                 0:00       1         
Rain_1in1hr                 1:00       0         
;
;Rainfall (in/hr); SCS Type 2, 1-yr return period, 24-hr duration (NOAA Atlas 14, Vol.2, Ver.3)
SCS2_001y24hr    01/01/2025 00:00:00   0.03383   
SCS2_001y24hr    01/01/2025 00:06:00   0.03383   
SCS2_001y24hr    01/01/2025 00:12:00   0.0345    
SCS2_001y24hr    01/01/2025 00:18:00   0.0345    
SCS2_001y24hr    01/01/2025 00:24:00   0.03518   
SCS2_001y24hr    01/01/2025 00:30:00   0.03518   
SCS2_001y24hr    01/01/2025 00:36:00   0.03584   
SCS2_001y24hr    01/01/2025 00:42:00   0.03584   
SCS2_001y24hr    01/01/2025 00:48:00   0.03652   
SCS2_001y24hr    01/01/2025 00:54:00   0.03652   
SCS2_001y24hr    01/01/2025 01:00:00   0.03719   
SCS2_001y24hr    01/01/2025 01:06:00   0.03719   
SCS2_001y24hr    01/01/2025 01:12:00   0.03786   
SCS2_001y24hr    01/01/2025 01:18:00   0.03786   
SCS2_001y24hr    01/01/2025 01:24:00   0.03852   
SCS2_001y24hr    01/01/2025 01:30:00   0.03852   
SCS2_001y24hr    01/01/2025 01:36:00   0.0392    
SCS2_001y24hr    01/01/2025 01:42:00   0.03919   
SCS2_001y24hr    01/01/2025 01:48:00   0.03986   
SCS2_001y24hr    01/01/2025 01:54:00   0.03986   
SCS2_001y24hr    01/01/2025 02:00:00   0.04054   
SCS2_001y24hr    01/01/2025 02:06:00   0.04054   
SCS2_001y24hr    01/01/2025 02:12:00   0.0412    
SCS2_001y24hr    01/01/2025 02:18:00   0.0412    
SCS2_001y24hr    01/01/2025 02:24:00   0.04188   
SCS2_001y24hr    01/01/2025 02:30:00   0.04188   
SCS2_001y24hr    01/01/2025 02:36:00   0.04255   
SCS2_001y24hr    01/01/2025 02:42:00   0.04254   
SCS2_001y24hr    01/01/2025 02:48:00   0.04322   
SCS2_001y24hr    01/01/2025 02:54:00   0.04321   
SCS2_001y24hr    01/01/2025 03:00:00   0.04388   
SCS2_001y24hr    01/01/2025 03:06:00   0.04388   
SCS2_001y24hr    01/01/2025 03:12:00   0.04455   
SCS2_001y24hr    01/01/2025 03:18:00   0.04456   
SCS2_001y24hr    01/01/2025 03:24:00   0.04523   
SCS2_001y24hr    01/01/2025 03:30:00   0.04522   
SCS2_001y24hr    01/01/2025 03:36:00   0.0459    
SCS2_001y24hr    01/01/2025 03:42:00   0.0459    
SCS2_001y24hr    01/01/2025 03:48:00   0.04656   
SCS2_001y24hr    01/01/2025 03:54:00   0.04657   
SCS2_001y24hr    01/01/2025 04:00:00   0.04723   
SCS2_001y24hr    01/01/2025 04:06:00   0.0479    
SCS2_001y24hr    01/01/2025 04:12:00   0.04858   
SCS2_001y24hr    01/01/2025 04:18:00   0.04924   
SCS2_001y24hr    01/01/2025 04:24:00   0.04991   
SCS2_001y24hr    01/01/2025 04:30:00   0.05059   
SCS2_001y24hr    01/01/2025 04:36:00   0.05125   
SCS2_001y24hr    01/01/2025 04:42:00   0.05193   
SCS2_001y24hr    01/01/2025 04:48:00   0.0526    
SCS2_001y24hr    01/01/2025 04:54:00   0.05326   
SCS2_001y24hr    01/01/2025 05:00:00   0.05394   
SCS2_001y24hr    01/01/2025 05:06:00   0.0546    
SCS2_001y24hr    01/01/2025 05:12:00   0.05528   
SCS2_001y24hr    01/01/2025 05:18:00   0.05594   
SCS2_001y24hr    01/01/2025 05:24:00   0.05661   
SCS2_001y24hr    01/01/2025 05:30:00   0.05728   
SCS2_001y24hr    01/01/2025 05:36:00   0.05795   
SCS2_001y24hr    01/01/2025 05:42:00   0.05863   
SCS2_001y24hr    01/01/2025 05:48:00   0.05929   
SCS2_001y24hr    01/01/2025 05:54:00   0.05997   
SCS2_001y24hr    01/01/2025 06:00:00   0.06064   
SCS2_001y24hr    01/01/2025 06:06:00   0.0613    
SCS2_001y24hr    01/01/2025 06:12:00   0.06198   
SCS2_001y24hr    01/01/2025 06:18:00   0.06265   
SCS2_001y24hr    01/01/2025 06:24:00   0.06331   
SCS2_001y24hr    01/01/2025 06:30:00   0.06398   
SCS2_001y24hr    01/01/2025 06:36:00   0.06466   
SCS2_001y24hr    01/01/2025 06:42:00   0.06532   
SCS2_001y24hr    01/01/2025 06:48:00   0.06599   
SCS2_001y24hr    01/01/2025 06:54:00   0.06667   
SCS2_001y24hr    01/01/2025 07:00:00   0.06734   
SCS2_001y24hr    01/01/2025 07:06:00   0.068     
SCS2_001y24hr    01/01/2025 07:12:00   0.06868   
SCS2_001y24hr    01/01/2025 07:18:00   0.06935   
SCS2_001y24hr    01/01/2025 07:24:00   0.07001   
SCS2_001y24hr    01/01/2025 07:30:00   0.07068   
SCS2_001y24hr    01/01/2025 07:36:00   0.07136   
SCS2_001y24hr    01/01/2025 07:42:00   0.07203   
SCS2_001y24hr    01/01/2025 07:48:00   0.07269   
SCS2_001y24hr    01/01/2025 07:54:00   0.07337   
SCS2_001y24hr    01/01/2025 08:00:00   0.07537   
SCS2_001y24hr    01/01/2025 08:06:00   0.07872   
SCS2_001y24hr    01/01/2025 08:12:00   0.08207   
SCS2_001y24hr    01/01/2025 08:18:00   0.08543   
SCS2_001y24hr    01/01/2025 08:24:00   0.08877   
SCS2_001y24hr    01/01/2025 08:30:00   0.09213   
SCS2_001y24hr    01/01/2025 08:36:00   0.09548   
SCS2_001y24hr    01/01/2025 08:42:00   0.09882   
SCS2_001y24hr    01/01/2025 08:48:00   0.10218   
SCS2_001y24hr    01/01/2025 08:54:00   0.10552   
SCS2_001y24hr    01/01/2025 09:00:00   0.1072    
SCS2_001y24hr    01/01/2025 09:06:00   0.1072    
SCS2_001y24hr    01/01/2025 09:12:00   0.1072    
SCS2_001y24hr    01/01/2025 09:18:00   0.1072    
SCS2_001y24hr    01/01/2025 09:24:00   0.1072    
SCS2_001y24hr    01/01/2025 09:30:00   0.10988   
SCS2_001y24hr    01/01/2025 09:36:00   0.11524   
SCS2_001y24hr    01/01/2025 09:42:00   0.1206    
SCS2_001y24hr    01/01/2025 09:48:00   0.12596   
SCS2_001y24hr    01/01/2025 09:54:00   0.13132   
SCS2_001y24hr    01/01/2025 10:00:00   0.13802   
SCS2_001y24hr    01/01/2025 10:06:00   0.14606   
SCS2_001y24hr    01/01/2025 10:12:00   0.1541    
SCS2_001y24hr    01/01/2025 10:18:00   0.16214   
SCS2_001y24hr    01/01/2025 10:24:00   0.17018   
SCS2_001y24hr    01/01/2025 10:30:00   0.1809    
SCS2_001y24hr    01/01/2025 10:36:00   0.1943    
SCS2_001y24hr    01/01/2025 10:42:00   0.2077    
SCS2_001y24hr    01/01/2025 10:48:00   0.2211    
SCS2_001y24hr    01/01/2025 10:54:00   0.2345    
SCS2_001y24hr    01/01/2025 11:00:00   0.25728   
SCS2_001y24hr    01/01/2025 11:06:00   0.28944   
SCS2_001y24hr    01/01/2025 11:12:00   0.3216    
SCS2_001y24hr    01/01/2025 11:18:00   0.35376   
SCS2_001y24hr    01/01/2025 11:24:00   0.38592   
SCS2_001y24hr    01/01/2025 11:30:00   0.79864   
SCS2_001y24hr    01/01/2025 11:36:00   1.59192   
SCS2_001y24hr    01/01/2025 11:42:00   2.5604    
SCS2_001y24hr    01/01/2025 11:48:00   4.59184   
SCS2_001y24hr    01/01/2025 11:54:00   3.18719   
SCS2_001y24hr    01/01/2025 12:00:00   0.63516   
SCS2_001y24hr    01/01/2025 12:06:00   0.55878   
SCS2_001y24hr    01/01/2025 12:12:00   0.4824    
SCS2_001y24hr    01/01/2025 12:18:00   0.40602   
SCS2_001y24hr    01/01/2025 12:24:00   0.32964   
SCS2_001y24hr    01/01/2025 12:30:00   0.28274   
SCS2_001y24hr    01/01/2025 12:36:00   0.26532   
SCS2_001y24hr    01/01/2025 12:42:00   0.2479    
SCS2_001y24hr    01/01/2025 12:48:00   0.23048   
SCS2_001y24hr    01/01/2025 12:54:00   0.21306   
SCS2_001y24hr    01/01/2025 13:00:00   0.19966   
SCS2_001y24hr    01/01/2025 13:06:00   0.19028   
SCS2_001y24hr    01/01/2025 13:12:00   0.1809    
SCS2_001y24hr    01/01/2025 13:18:00   0.17152   
SCS2_001y24hr    01/01/2025 13:24:00   0.16214   
SCS2_001y24hr    01/01/2025 13:30:00   0.1541    
SCS2_001y24hr    01/01/2025 13:36:00   0.1474    
SCS2_001y24hr    01/01/2025 13:42:00   0.1407    
SCS2_001y24hr    01/01/2025 13:48:00   0.134     
SCS2_001y24hr    01/01/2025 13:54:00   0.1273    
SCS2_001y24hr    01/01/2025 14:00:00   0.12295   
SCS2_001y24hr    01/01/2025 14:06:00   0.12026   
SCS2_001y24hr    01/01/2025 14:12:00   0.11826   
SCS2_001y24hr    01/01/2025 14:18:00   0.11557   
SCS2_001y24hr    01/01/2025 14:24:00   0.11357   
SCS2_001y24hr    01/01/2025 14:30:00   0.11089   
SCS2_001y24hr    01/01/2025 14:36:00   0.10887   
SCS2_001y24hr    01/01/2025 14:42:00   0.10619   
SCS2_001y24hr    01/01/2025 14:48:00   0.10419   
SCS2_001y24hr    01/01/2025 14:54:00   0.1015    
SCS2_001y24hr    01/01/2025 15:00:00   0.0995    
SCS2_001y24hr    01/01/2025 15:06:00   0.09681   
SCS2_001y24hr    01/01/2025 15:12:00   0.0948    
SCS2_001y24hr    01/01/2025 15:18:00   0.09213   
SCS2_001y24hr    01/01/2025 15:24:00   0.09011   
SCS2_001y24hr    01/01/2025 15:30:00   0.08744   
SCS2_001y24hr    01/01/2025 15:36:00   0.08542   
SCS2_001y24hr    01/01/2025 15:42:00   0.08275   
SCS2_001y24hr    01/01/2025 15:48:00   0.08074   
SCS2_001y24hr    01/01/2025 15:54:00   0.07805   
SCS2_001y24hr    01/01/2025 16:00:00   0.07671   
SCS2_001y24hr    01/01/2025 16:06:00   0.07571   
SCS2_001y24hr    01/01/2025 16:12:00   0.07504   
SCS2_001y24hr    01/01/2025 16:18:00   0.07403   
SCS2_001y24hr    01/01/2025 16:24:00   0.07337   
SCS2_001y24hr    01/01/2025 16:30:00   0.07236   
SCS2_001y24hr    01/01/2025 16:36:00   0.07169   
SCS2_001y24hr    01/01/2025 16:42:00   0.07068   
SCS2_001y24hr    01/01/2025 16:48:00   0.07002   
SCS2_001y24hr    01/01/2025 16:54:00   0.06901   
SCS2_001y24hr    01/01/2025 17:00:00   0.06834   
SCS2_001y24hr    01/01/2025 17:06:00   0.06734   
SCS2_001y24hr    01/01/2025 17:12:00   0.06667   
SCS2_001y24hr    01/01/2025 17:18:00   0.06566   
SCS2_001y24hr    01/01/2025 17:24:00   0.06499   
SCS2_001y24hr    01/01/2025 17:30:00   0.06398   
SCS2_001y24hr    01/01/2025 17:36:00   0.06331   
SCS2_001y24hr    01/01/2025 17:42:00   0.06231   
SCS2_001y24hr    01/01/2025 17:48:00   0.06164   
SCS2_001y24hr    01/01/2025 17:54:00   0.06064   
SCS2_001y24hr    01/01/2025 18:00:00   0.05997   
SCS2_001y24hr    01/01/2025 18:06:00   0.05896   
SCS2_001y24hr    01/01/2025 18:12:00   0.05829   
SCS2_001y24hr    01/01/2025 18:18:00   0.05729   
SCS2_001y24hr    01/01/2025 18:24:00   0.05661   
SCS2_001y24hr    01/01/2025 18:30:00   0.05561   
SCS2_001y24hr    01/01/2025 18:36:00   0.05494   
SCS2_001y24hr    01/01/2025 18:42:00   0.05394   
SCS2_001y24hr    01/01/2025 18:48:00   0.05326   
SCS2_001y24hr    01/01/2025 18:54:00   0.05226   
SCS2_001y24hr    01/01/2025 19:00:00   0.05159   
SCS2_001y24hr    01/01/2025 19:06:00   0.05058   
SCS2_001y24hr    01/01/2025 19:12:00   0.04992   
SCS2_001y24hr    01/01/2025 19:18:00   0.04891   
SCS2_001y24hr    01/01/2025 19:24:00   0.04824   
SCS2_001y24hr    01/01/2025 19:30:00   0.04723   
SCS2_001y24hr    01/01/2025 19:36:00   0.04656   
SCS2_001y24hr    01/01/2025 19:42:00   0.04556   
SCS2_001y24hr    01/01/2025 19:48:00   0.04489   
SCS2_001y24hr    01/01/2025 19:54:00   0.04389   
SCS2_001y24hr    01/01/2025 20:00:00   0.04355   
SCS2_001y24hr    01/01/2025 20:06:00   0.04322   
SCS2_001y24hr    01/01/2025 20:12:00   0.04322   
SCS2_001y24hr    01/01/2025 20:18:00   0.04288   
SCS2_001y24hr    01/01/2025 20:24:00   0.04288   
SCS2_001y24hr    01/01/2025 20:30:00   0.04255   
SCS2_001y24hr    01/01/2025 20:36:00   0.04255   
SCS2_001y24hr    01/01/2025 20:42:00   0.04221   
SCS2_001y24hr    01/01/2025 20:48:00   0.04221   
SCS2_001y24hr    01/01/2025 20:54:00   0.04188   
SCS2_001y24hr    01/01/2025 21:00:00   0.04188   
SCS2_001y24hr    01/01/2025 21:06:00   0.04154   
SCS2_001y24hr    01/01/2025 21:12:00   0.04154   
SCS2_001y24hr    01/01/2025 21:18:00   0.0412    
SCS2_001y24hr    01/01/2025 21:24:00   0.0412    
SCS2_001y24hr    01/01/2025 21:30:00   0.04087   
SCS2_001y24hr    01/01/2025 21:36:00   0.04087   
SCS2_001y24hr    01/01/2025 21:42:00   0.04054   
SCS2_001y24hr    01/01/2025 21:48:00   0.04053   
SCS2_001y24hr    01/01/2025 21:54:00   0.0402    
SCS2_001y24hr    01/01/2025 22:00:00   0.0402    
SCS2_001y24hr    01/01/2025 22:06:00   0.03986   
SCS2_001y24hr    01/01/2025 22:12:00   0.03987   
SCS2_001y24hr    01/01/2025 22:18:00   0.03953   
SCS2_001y24hr    01/01/2025 22:24:00   0.03953   
SCS2_001y24hr    01/01/2025 22:30:00   0.0392    
SCS2_001y24hr    01/01/2025 22:36:00   0.03919   
SCS2_001y24hr    01/01/2025 22:42:00   0.03886   
SCS2_001y24hr    01/01/2025 22:48:00   0.03886   
SCS2_001y24hr    01/01/2025 22:54:00   0.03852   
SCS2_001y24hr    01/01/2025 23:00:00   0.03852   
SCS2_001y24hr    01/01/2025 23:06:00   0.03819   
SCS2_001y24hr    01/01/2025 23:12:00   0.03819   
SCS2_001y24hr    01/01/2025 23:18:00   0.03786   
SCS2_001y24hr    01/01/2025 23:24:00   0.03785   
SCS2_001y24hr    01/01/2025 23:30:00   0.03752   
SCS2_001y24hr    01/01/2025 23:36:00   0.03752   
SCS2_001y24hr    01/01/2025 23:42:00   0.03719   
SCS2_001y24hr    01/01/2025 23:48:00   0.03719   
SCS2_001y24hr    01/01/2025 23:54:00   0.03685   
;
;Rainfall (in/hr); SCS Type 2, 2-yr return period, 24-hr duration (NOAA Atlas 14, Vol.2, Ver.3)
SCS2_002y24hr    01/01/2025 00:00:00   0.0405    
SCS2_002y24hr    01/01/2025 00:06:00   0.0405    
SCS2_002y24hr    01/01/2025 00:12:00   0.0413    
SCS2_002y24hr    01/01/2025 00:18:00   0.0413    
SCS2_002y24hr    01/01/2025 00:24:00   0.0421    
SCS2_002y24hr    01/01/2025 00:30:00   0.0421    
SCS2_002y24hr    01/01/2025 00:36:00   0.04291   
SCS2_002y24hr    01/01/2025 00:42:00   0.04291   
SCS2_002y24hr    01/01/2025 00:48:00   0.04371   
SCS2_002y24hr    01/01/2025 00:54:00   0.04371   
SCS2_002y24hr    01/01/2025 01:00:00   0.04451   
SCS2_002y24hr    01/01/2025 01:06:00   0.04451   
SCS2_002y24hr    01/01/2025 01:12:00   0.04531   
SCS2_002y24hr    01/01/2025 01:18:00   0.04531   
SCS2_002y24hr    01/01/2025 01:24:00   0.04612   
SCS2_002y24hr    01/01/2025 01:30:00   0.04612   
SCS2_002y24hr    01/01/2025 01:36:00   0.04692   
SCS2_002y24hr    01/01/2025 01:42:00   0.04692   
SCS2_002y24hr    01/01/2025 01:48:00   0.04772   
SCS2_002y24hr    01/01/2025 01:54:00   0.04772   
SCS2_002y24hr    01/01/2025 02:00:00   0.04852   
SCS2_002y24hr    01/01/2025 02:06:00   0.04852   
SCS2_002y24hr    01/01/2025 02:12:00   0.04932   
SCS2_002y24hr    01/01/2025 02:18:00   0.04932   
SCS2_002y24hr    01/01/2025 02:24:00   0.05012   
SCS2_002y24hr    01/01/2025 02:30:00   0.05012   
SCS2_002y24hr    01/01/2025 02:36:00   0.05093   
SCS2_002y24hr    01/01/2025 02:42:00   0.05093   
SCS2_002y24hr    01/01/2025 02:48:00   0.05173   
SCS2_002y24hr    01/01/2025 02:54:00   0.05173   
SCS2_002y24hr    01/01/2025 03:00:00   0.05253   
SCS2_002y24hr    01/01/2025 03:06:00   0.05253   
SCS2_002y24hr    01/01/2025 03:12:00   0.05333   
SCS2_002y24hr    01/01/2025 03:18:00   0.05333   
SCS2_002y24hr    01/01/2025 03:24:00   0.05414   
SCS2_002y24hr    01/01/2025 03:30:00   0.05413   
SCS2_002y24hr    01/01/2025 03:36:00   0.05494   
SCS2_002y24hr    01/01/2025 03:42:00   0.05494   
SCS2_002y24hr    01/01/2025 03:48:00   0.05574   
SCS2_002y24hr    01/01/2025 03:54:00   0.05574   
SCS2_002y24hr    01/01/2025 04:00:00   0.05654   
SCS2_002y24hr    01/01/2025 04:06:00   0.05734   
SCS2_002y24hr    01/01/2025 04:12:00   0.05814   
SCS2_002y24hr    01/01/2025 04:18:00   0.05895   
SCS2_002y24hr    01/01/2025 04:24:00   0.05975   
SCS2_002y24hr    01/01/2025 04:30:00   0.06055   
SCS2_002y24hr    01/01/2025 04:36:00   0.06135   
SCS2_002y24hr    01/01/2025 04:42:00   0.06215   
SCS2_002y24hr    01/01/2025 04:48:00   0.06296   
SCS2_002y24hr    01/01/2025 04:54:00   0.06376   
SCS2_002y24hr    01/01/2025 05:00:00   0.06456   
SCS2_002y24hr    01/01/2025 05:06:00   0.06536   
SCS2_002y24hr    01/01/2025 05:12:00   0.06617   
SCS2_002y24hr    01/01/2025 05:18:00   0.06697   
SCS2_002y24hr    01/01/2025 05:24:00   0.06777   
SCS2_002y24hr    01/01/2025 05:30:00   0.06857   
SCS2_002y24hr    01/01/2025 05:36:00   0.06937   
SCS2_002y24hr    01/01/2025 05:42:00   0.07017   
SCS2_002y24hr    01/01/2025 05:48:00   0.07098   
SCS2_002y24hr    01/01/2025 05:54:00   0.07178   
SCS2_002y24hr    01/01/2025 06:00:00   0.07258   
SCS2_002y24hr    01/01/2025 06:06:00   0.07338   
SCS2_002y24hr    01/01/2025 06:12:00   0.07418   
SCS2_002y24hr    01/01/2025 06:18:00   0.07499   
SCS2_002y24hr    01/01/2025 06:24:00   0.07579   
SCS2_002y24hr    01/01/2025 06:30:00   0.07659   
SCS2_002y24hr    01/01/2025 06:36:00   0.07739   
SCS2_002y24hr    01/01/2025 06:42:00   0.0782    
SCS2_002y24hr    01/01/2025 06:48:00   0.079     
SCS2_002y24hr    01/01/2025 06:54:00   0.0798    
SCS2_002y24hr    01/01/2025 07:00:00   0.0806    
SCS2_002y24hr    01/01/2025 07:06:00   0.0814    
SCS2_002y24hr    01/01/2025 07:12:00   0.0822    
SCS2_002y24hr    01/01/2025 07:18:00   0.08301   
SCS2_002y24hr    01/01/2025 07:24:00   0.08381   
SCS2_002y24hr    01/01/2025 07:30:00   0.08461   
SCS2_002y24hr    01/01/2025 07:36:00   0.08541   
SCS2_002y24hr    01/01/2025 07:42:00   0.08621   
SCS2_002y24hr    01/01/2025 07:48:00   0.08702   
SCS2_002y24hr    01/01/2025 07:54:00   0.08782   
SCS2_002y24hr    01/01/2025 08:00:00   0.09022   
SCS2_002y24hr    01/01/2025 08:06:00   0.09423   
SCS2_002y24hr    01/01/2025 08:12:00   0.09825   
SCS2_002y24hr    01/01/2025 08:18:00   0.10226   
SCS2_002y24hr    01/01/2025 08:24:00   0.10626   
SCS2_002y24hr    01/01/2025 08:30:00   0.11028   
SCS2_002y24hr    01/01/2025 08:36:00   0.11428   
SCS2_002y24hr    01/01/2025 08:42:00   0.1183    
SCS2_002y24hr    01/01/2025 08:48:00   0.1223    
SCS2_002y24hr    01/01/2025 08:54:00   0.12632   
SCS2_002y24hr    01/01/2025 09:00:00   0.12832   
SCS2_002y24hr    01/01/2025 09:06:00   0.12832   
SCS2_002y24hr    01/01/2025 09:12:00   0.12832   
SCS2_002y24hr    01/01/2025 09:18:00   0.12832   
SCS2_002y24hr    01/01/2025 09:24:00   0.12832   
SCS2_002y24hr    01/01/2025 09:30:00   0.13153   
SCS2_002y24hr    01/01/2025 09:36:00   0.13794   
SCS2_002y24hr    01/01/2025 09:42:00   0.14436   
SCS2_002y24hr    01/01/2025 09:48:00   0.15078   
SCS2_002y24hr    01/01/2025 09:54:00   0.15719   
SCS2_002y24hr    01/01/2025 10:00:00   0.16521   
SCS2_002y24hr    01/01/2025 10:06:00   0.17484   
SCS2_002y24hr    01/01/2025 10:12:00   0.18446   
SCS2_002y24hr    01/01/2025 10:18:00   0.19408   
SCS2_002y24hr    01/01/2025 10:24:00   0.20371   
SCS2_002y24hr    01/01/2025 10:30:00   0.21654   
SCS2_002y24hr    01/01/2025 10:36:00   0.23258   
SCS2_002y24hr    01/01/2025 10:42:00   0.24862   
SCS2_002y24hr    01/01/2025 10:48:00   0.26466   
SCS2_002y24hr    01/01/2025 10:54:00   0.2807    
SCS2_002y24hr    01/01/2025 11:00:00   0.30797   
SCS2_002y24hr    01/01/2025 11:06:00   0.34646   
SCS2_002y24hr    01/01/2025 11:12:00   0.38496   
SCS2_002y24hr    01/01/2025 11:18:00   0.42346   
SCS2_002y24hr    01/01/2025 11:24:00   0.46195   
SCS2_002y24hr    01/01/2025 11:30:00   0.95598   
SCS2_002y24hr    01/01/2025 11:36:00   1.90555   
SCS2_002y24hr    01/01/2025 11:42:00   3.06484   
SCS2_002y24hr    01/01/2025 11:48:00   5.49651   
SCS2_002y24hr    01/01/2025 11:54:00   3.81511   
SCS2_002y24hr    01/01/2025 12:00:00   0.7603    
SCS2_002y24hr    01/01/2025 12:06:00   0.66887   
SCS2_002y24hr    01/01/2025 12:12:00   0.57744   
SCS2_002y24hr    01/01/2025 12:18:00   0.48601   
SCS2_002y24hr    01/01/2025 12:24:00   0.39458   
SCS2_002y24hr    01/01/2025 12:30:00   0.33844   
SCS2_002y24hr    01/01/2025 12:36:00   0.31759   
SCS2_002y24hr    01/01/2025 12:42:00   0.29674   
SCS2_002y24hr    01/01/2025 12:48:00   0.27589   
SCS2_002y24hr    01/01/2025 12:54:00   0.25504   
SCS2_002y24hr    01/01/2025 13:00:00   0.239     
SCS2_002y24hr    01/01/2025 13:06:00   0.22777   
SCS2_002y24hr    01/01/2025 13:12:00   0.21654   
SCS2_002y24hr    01/01/2025 13:18:00   0.20531   
SCS2_002y24hr    01/01/2025 13:24:00   0.19408   
SCS2_002y24hr    01/01/2025 13:30:00   0.18446   
SCS2_002y24hr    01/01/2025 13:36:00   0.17644   
SCS2_002y24hr    01/01/2025 13:42:00   0.16842   
SCS2_002y24hr    01/01/2025 13:48:00   0.1604    
SCS2_002y24hr    01/01/2025 13:54:00   0.15238   
SCS2_002y24hr    01/01/2025 14:00:00   0.14717   
SCS2_002y24hr    01/01/2025 14:06:00   0.14396   
SCS2_002y24hr    01/01/2025 14:12:00   0.14155   
SCS2_002y24hr    01/01/2025 14:18:00   0.13835   
SCS2_002y24hr    01/01/2025 14:24:00   0.13594   
SCS2_002y24hr    01/01/2025 14:30:00   0.13273   
SCS2_002y24hr    01/01/2025 14:36:00   0.13032   
SCS2_002y24hr    01/01/2025 14:42:00   0.12712   
SCS2_002y24hr    01/01/2025 14:48:00   0.12471   
SCS2_002y24hr    01/01/2025 14:54:00   0.1215    
SCS2_002y24hr    01/01/2025 15:00:00   0.1191    
SCS2_002y24hr    01/01/2025 15:06:00   0.11589   
SCS2_002y24hr    01/01/2025 15:12:00   0.11348   
SCS2_002y24hr    01/01/2025 15:18:00   0.11028   
SCS2_002y24hr    01/01/2025 15:24:00   0.10787   
SCS2_002y24hr    01/01/2025 15:30:00   0.10466   
SCS2_002y24hr    01/01/2025 15:36:00   0.10226   
SCS2_002y24hr    01/01/2025 15:42:00   0.09905   
SCS2_002y24hr    01/01/2025 15:48:00   0.09664   
SCS2_002y24hr    01/01/2025 15:54:00   0.09343   
SCS2_002y24hr    01/01/2025 16:00:00   0.09183   
SCS2_002y24hr    01/01/2025 16:06:00   0.09063   
SCS2_002y24hr    01/01/2025 16:12:00   0.08982   
SCS2_002y24hr    01/01/2025 16:18:00   0.08862   
SCS2_002y24hr    01/01/2025 16:24:00   0.08782   
SCS2_002y24hr    01/01/2025 16:30:00   0.08662   